Version 4
SHEET 1 880 980
WIRE -80 -160 -96 -160
WIRE -64 -160 -80 -160
WIRE 32 -160 16 -160
WIRE 48 -160 32 -160
WIRE -80 -128 -80 -160
WIRE 32 -128 32 -160
WIRE 368 -96 240 -96
WIRE -608 -64 -672 -64
WIRE -496 -64 -528 -64
WIRE 368 -64 368 -96
WIRE -80 -16 -80 -48
WIRE 32 -16 32 -48
WIRE -336 0 -384 0
WIRE -256 0 -272 0
WIRE 240 0 240 -96
WIRE -672 32 -672 -64
WIRE -592 32 -672 32
WIRE -496 32 -496 -64
WIRE -496 32 -528 32
WIRE 368 48 368 16
WIRE -336 96 -352 96
WIRE -320 96 -336 96
WIRE -576 112 -592 112
WIRE -560 112 -576 112
WIRE -336 112 -336 96
WIRE 240 112 240 80
WIRE 256 112 240 112
WIRE -576 128 -576 112
WIRE -496 128 -496 32
WIRE -480 128 -496 128
WIRE -384 128 -384 0
WIRE -384 128 -400 128
WIRE -368 128 -384 128
WIRE -672 144 -672 32
WIRE -608 144 -672 144
WIRE -256 144 -256 0
WIRE -256 144 -304 144
WIRE -96 144 -256 144
WIRE 80 144 -16 144
WIRE 176 144 80 144
WIRE 208 144 176 144
WIRE -496 160 -496 128
WIRE -496 160 -544 160
WIRE -368 160 -432 160
WIRE -608 176 -704 176
WIRE -336 192 -336 176
WIRE -336 192 -352 192
WIRE -320 192 -336 192
WIRE 256 192 240 192
WIRE -576 208 -576 192
WIRE -576 208 -592 208
WIRE -560 208 -576 208
WIRE -672 240 -672 144
WIRE -256 240 -672 240
WIRE 176 240 -176 240
WIRE 240 240 240 192
WIRE 240 240 208 240
WIRE 80 272 80 144
WIRE 240 272 240 240
WIRE -544 304 -864 304
WIRE -432 304 -432 160
WIRE -432 304 -464 304
WIRE -400 304 -432 304
WIRE -304 304 -336 304
WIRE -304 320 -304 304
WIRE -704 384 -704 176
WIRE -576 384 -704 384
WIRE -256 384 -576 384
WIRE -128 384 -176 384
WIRE -96 384 -128 384
WIRE 16 384 -16 384
WIRE 176 384 208 240
WIRE 176 384 16 384
WIRE 208 384 176 240
WIRE 240 384 240 352
WIRE 240 384 208 384
WIRE -864 416 -864 304
WIRE -704 416 -704 384
WIRE 240 416 240 384
WIRE -576 432 -576 384
WIRE -128 480 -128 384
WIRE -96 480 -128 480
WIRE 16 480 16 384
WIRE 16 480 -16 480
WIRE -864 528 -864 496
WIRE -704 528 -704 496
WIRE -576 528 -576 496
WIRE -576 528 -704 528
WIRE 80 528 80 352
WIRE 240 528 240 496
WIRE -96 576 -128 576
WIRE 16 576 -16 576
WIRE -128 592 -128 576
WIRE -704 656 -704 528
WIRE -128 688 -128 672
WIRE -96 688 -128 688
WIRE 16 688 16 576
WIRE 16 688 -16 688
WIRE 80 688 16 688
WIRE 80 704 80 688
WIRE -704 768 -704 736
FLAG 240 528 0
FLAG 32 -16 0
FLAG -80 -16 0
FLAG -576 112 VCC
FLAG -576 208 VEE
FLAG 32 -160 VEE
FLAG -80 -160 VCC
FLAG 256 192 E
FLAG 256 112 C
FLAG 176 144 G
FLAG -336 96 VCC
FLAG -336 192 VEE
FLAG -864 528 0
FLAG 80 528 0
FLAG -304 320 0
FLAG 80 704 0
FLAG -128 384 A
FLAG 368 48 0
FLAG -704 768 0
SYMBOL IXXK300N60B3 240 144 R0
WINDOW 3 156 13 Top 2
WINDOW 0 81 7 Bottom 2
SYMATTR InstName U1
SYMBOL res 224 -16 R0
SYMATTR InstName R1
SYMATTR Value 9
SYMBOL res 64 256 R0
SYMATTR InstName R2
SYMATTR Value 10k
SYMBOL LM358 -576 160 R0
SYMATTR InstName U2
SYMBOL voltage -80 -144 R0
WINDOW 123 0 0 Left 0
WINDOW 39 0 0 Left 0
SYMATTR InstName V1
SYMATTR Value 15
SYMBOL voltage 32 -144 R0
WINDOW 123 0 0 Left 0
WINDOW 39 0 0 Left 0
SYMATTR InstName V2
SYMATTR Value -5
SYMBOL voltage -864 400 R0
WINDOW 123 0 0 Left 0
WINDOW 39 0 0 Left 0
SYMATTR InstName V3
SYMATTR Value 1
SYMBOL res -160 224 R90
WINDOW 0 0 56 VBottom 2
WINDOW 3 32 56 VTop 2
SYMATTR InstName R5
SYMATTR Value 1k
SYMBOL res 224 256 R0
SYMATTR InstName R8
SYMATTR Value 1
SYMBOL cap -528 16 R90
WINDOW 0 0 32 VBottom 2
WINDOW 3 32 32 VTop 2
SYMATTR InstName C3
SYMATTR Value 1p
SYMBOL res -512 -80 R90
WINDOW 0 0 56 VBottom 2
WINDOW 3 32 56 VTop 2
SYMATTR InstName R4
SYMATTR Value 1k
SYMBOL LM358 -336 144 R0
SYMATTR InstName U3
SYMBOL voltage -112 688 R270
WINDOW 0 -44 8 VRight 2
WINDOW 123 -73 8 VRight 2
WINDOW 39 0 0 Left 0
SYMATTR InstName V5
SYMATTR Value2 AC 1
SYMATTR Value ""
SYMBOL res -160 368 R90
WINDOW 0 0 56 VBottom 2
WINDOW 3 32 56 VTop 2
SYMATTR InstName R9
SYMATTR Value 1k
SYMBOL res -720 400 R0
SYMATTR InstName R13
SYMATTR Value 1k
SYMBOL cap -592 432 R0
SYMATTR InstName C1
SYMATTR Value 1p
SYMBOL cap -272 -16 R90
WINDOW 0 0 32 VBottom 2
WINDOW 3 32 32 VTop 2
SYMATTR InstName C4
SYMATTR Value 10n
SYMBOL res -384 112 R90
WINDOW 0 0 56 VBottom 2
WINDOW 3 32 56 VTop 2
SYMATTR InstName R10
SYMATTR Value 1k
SYMBOL res -448 288 R90
WINDOW 0 0 56 VBottom 2
WINDOW 3 32 56 VTop 2
SYMATTR InstName R11
SYMATTR Value 1k
SYMBOL cap -336 288 R90
WINDOW 0 0 32 VBottom 2
WINDOW 3 32 32 VTop 2
SYMATTR InstName C5
SYMATTR Value 10n
SYMBOL ind2 0 464 R90
WINDOW 0 5 56 VBottom 2
WINDOW 3 32 56 VTop 2
SYMATTR InstName L1
SYMATTR Value 1µ
SYMATTR Type ind
SYMBOL ind2 -112 592 R270
WINDOW 0 32 56 VTop 2
WINDOW 3 5 56 VBottom 2
SYMATTR InstName L2
SYMATTR Value 1m
SYMATTR Type ind
SYMBOL res 0 368 R90
WINDOW 0 0 56 VBottom 2
WINDOW 3 32 56 VTop 2
SYMATTR InstName R3
SYMATTR Value 1
SYMBOL res -144 576 R0
SYMATTR InstName R6
SYMATTR Value 50
SYMBOL voltage 368 -80 R0
WINDOW 123 0 0 Left 0
WINDOW 39 0 0 Left 0
SYMATTR InstName V6
SYMATTR Value 500
SYMBOL res 224 400 R0
SYMATTR InstName R7
SYMATTR Value 10m
SYMBOL res 0 128 R90
WINDOW 0 0 56 VBottom 2
WINDOW 3 32 56 VTop 2
SYMATTR InstName R12
SYMATTR Value 300
SYMBOL voltage -704 640 R0
WINDOW 123 0 0 Left 0
WINDOW 39 0 0 Left 0
SYMATTR InstName Vcm
SYMATTR Value {Vcm}
TEXT -216 528 Left 2 !K1 L1 L2 1
TEXT -880 688 Left 2 !.tran 10m
TEXT 336 472 Left 2 !.step param Vcm list 0 -1 -2
