Version 4
SHEET 1 880 680
WIRE -272 -416 -288 -416
WIRE -256 -416 -272 -416
WIRE 176 -416 -112 -416
WIRE 336 -416 176 -416
WIRE -272 -384 -272 -416
WIRE -112 -384 -112 -416
WIRE 176 -384 176 -416
WIRE 336 -288 336 -416
WIRE -272 -272 -272 -304
WIRE -112 -272 -112 -304
WIRE 176 -240 176 -304
WIRE 272 -240 176 -240
WIRE 336 -176 336 -192
WIRE 464 -176 336 -176
WIRE 656 -176 464 -176
WIRE 176 -128 176 -240
WIRE 336 -128 336 -176
WIRE 336 -16 336 -48
WIRE 64 16 32 16
WIRE 176 16 176 -48
WIRE 176 16 128 16
WIRE 272 16 256 16
WIRE 288 16 272 16
WIRE 272 32 272 16
WIRE 32 128 32 16
WIRE 32 128 -112 128
WIRE 64 128 32 128
WIRE 272 128 272 112
WIRE 272 128 128 128
WIRE 464 128 272 128
WIRE 592 128 464 128
WIRE 176 160 176 16
WIRE -112 176 -112 128
WIRE -160 192 -448 192
WIRE 272 208 240 208
WIRE 304 208 272 208
WIRE 496 208 384 208
WIRE 592 208 576 208
WIRE 608 208 592 208
WIRE -448 224 -448 192
WIRE -160 240 -208 240
WIRE 272 240 272 208
WIRE 592 240 592 208
WIRE 656 256 656 -176
WIRE 656 256 640 256
WIRE -208 288 -208 240
WIRE -112 288 -112 256
WIRE -112 288 -208 288
WIRE 656 304 640 304
WIRE -448 336 -448 304
WIRE -112 336 -112 288
WIRE 176 336 176 256
WIRE 272 336 272 320
WIRE 496 336 496 208
WIRE 592 336 592 320
WIRE 592 336 496 336
WIRE 656 336 656 304
FLAG 272 336 0
FLAG 272 16 3V3
FLAG -112 336 0
FLAG 176 336 0
FLAG -112 -272 0
FLAG 336 -16 0
FLAG 464 -176 EN
FLAG -448 336 0
FLAG 656 336 0
FLAG 464 128 PWR
FLAG -272 -272 0
FLAG -272 -416 3V3
FLAG 592 208 3V3
SYMBOL npn 240 160 M0
SYMATTR InstName Q1
SYMATTR Value 2N3904
SYMBOL sw -112 272 M180
SYMATTR InstName S1
SYMBOL diode 128 0 R90
WINDOW 0 0 32 VBottom 2
WINDOW 3 32 32 VTop 2
SYMATTR InstName D1
SYMATTR Value 1N4148
SYMBOL diode 128 112 R90
WINDOW 0 0 32 VBottom 2
WINDOW 3 32 32 VTop 2
SYMATTR InstName D2
SYMATTR Value 1N4148
SYMBOL res 256 224 R0
SYMATTR InstName R1
SYMATTR Value 100k
SYMBOL res 400 192 R90
WINDOW 0 0 56 VBottom 2
WINDOW 3 32 56 VTop 2
SYMATTR InstName R2
SYMATTR Value 10k
SYMBOL res 256 16 R0
SYMATTR InstName R3
SYMATTR Value 100k
SYMBOL res 160 -144 R0
SYMATTR InstName R4
SYMATTR Value 100k
SYMBOL res 160 -400 R0
SYMATTR InstName R5
SYMATTR Value 100k
SYMBOL voltage -112 -400 R0
WINDOW 123 0 0 Left 0
WINDOW 39 0 0 Left 0
SYMATTR InstName V1
SYMATTR Value {Vs}
SYMBOL pnp 272 -192 M180
SYMATTR InstName Q2
SYMATTR Value 2N3906
SYMBOL res 320 -144 R0
SYMATTR InstName R6
SYMATTR Value 100k
SYMBOL voltage -448 208 R0
WINDOW 123 0 0 Left 0
WINDOW 39 0 0 Left 0
SYMATTR InstName V2
SYMATTR Value PULSE(0 1 1 1n 1n 0.1 5 2)
SYMBOL voltage -272 -400 R0
WINDOW 123 0 0 Left 0
WINDOW 39 0 0 Left 0
SYMATTR InstName V3
SYMATTR Value 3.3
SYMBOL sw 592 336 R180
SYMATTR InstName S2
TEXT -504 -112 Left 2 !.tran 10
TEXT -504 -80 Left 2 !.model SW SW(Vt=0.5 Vh=0 Ron=1m Roff=1T)
TEXT -504 -48 Left 2 !.step param Vs list 3.0 3.7 4.2
